*KEYWORD
*TITLE
Test Model
*NODE
       1        0.000000        0.000000        0.000000
       2        1.000000        0.000000        0.000000
       3        0.000000        1.000000        0.000000
       4        0.000000        0.000000        1.000000
*ELEMENT_SOLID
       1       1
       2       3       4       1       1       1       1       1       1
*PART
       1       1       1       0       0       0       0       0
*SECTION_SOLID
       1       1       0                             0.0     0.0
*MAT_ELASTIC
       1      210000        0.300000       0       0       0       0       0
*END
